ieee118bus_Losses.txt

LOSSES REPORT

Power Delivery Element Loss Report

Element                  kW Losses    % of Power   kvar Losses

"Line.1_2_1_1"       Nan,      0.0     Nan
"Line.1_3_1_1"       Nan,      0.0     Nan
"Line.2_12_1_1"       Nan,      0.0     Nan
"Line.3_5_1_1"       Nan,      0.0     Nan
"Line.3_12_1_1"       Nan,      0.0     Nan
"Line.4_5_1_1"       Nan,      0.0     Nan
"Line.4_11_1_1"       Nan,      0.0     Nan
"Line.5_6_1_1"       Nan,      0.0     Nan
"Line.5_11_1_1"       Nan,      0.0     Nan
"Line.6_7_1_1"       Nan,      0.0     Nan
"Line.7_12_1_1"       Nan,      0.0     Nan
"Line.8_9_1_1"       Nan,      0.0     Nan
"Line.8_30_1_1"       Nan,      0.0     Nan
"Line.9_10_1_1"       Nan,      0.0     Nan
"Line.11_12_1_1"       Nan,      0.0     Nan
"Line.11_13_1_1"       Nan,      0.0     Nan
"Line.12_14_1_1"       Nan,      0.0     Nan
"Line.12_16_1_1"       Nan,      0.0     Nan
"Line.12_117_1_1"       Nan,      0.0     Nan
"Line.13_15_1_1"       Nan,      0.0     Nan
"Line.14_15_1_1"       Nan,      0.0     Nan
"Line.15_17_1_1"       Nan,      0.0     Nan
"Line.15_19_1_1"       Nan,      0.0     Nan
"Line.15_33_1_1"       Nan,      0.0     Nan
"Line.16_17_1_1"       Nan,      0.0     Nan
"Line.17_18_1_1"       Nan,      0.0     Nan
"Line.17_31_1_1"       Nan,      0.0     Nan
"Line.17_113_1_1"       Nan,      0.0     Nan
"Line.18_19_1_1"       Nan,      0.0     Nan
"Line.19_20_1_1"       Nan,      0.0     Nan
"Line.19_34_1_1"       Nan,      0.0     Nan
"Line.20_21_1_1"       Nan,      0.0     Nan
"Line.21_22_1_1"       Nan,      0.0     Nan
"Line.22_23_1_1"       Nan,      0.0     Nan
"Line.23_24_1_1"       Nan,      0.0     Nan
"Line.23_25_1_1"       Nan,      0.0     Nan
"Line.23_32_1_1"       Nan,      0.0     Nan
"Line.24_70_1_1"       Nan,      0.0     Nan
"Line.24_72_1_1"       Nan,      0.0     Nan
"Line.25_27_1_1"       Nan,      0.0     Nan
"Line.26_30_1_1"       Nan,      0.0     Nan
"Line.27_28_1_1"       Nan,      0.0     Nan
"Line.27_32_1_1"       Nan,      0.0     Nan
"Line.27_115_1_1"       Nan,      0.0     Nan
"Line.28_29_1_1"       Nan,      0.0     Nan
"Line.29_31_1_1"       Nan,      0.0     Nan
"Line.30_38_1_1"       Nan,      0.0     Nan
"Line.31_32_1_1"       Nan,      0.0     Nan
"Line.32_113_1_1"       Nan,      0.0     Nan
"Line.32_114_1_1"       Nan,      0.0     Nan
"Line.33_37_1_1"       Nan,      0.0     Nan
"Line.34_36_1_1"       Nan,      0.0     Nan
"Line.34_37_1_1"       Nan,      0.0     Nan
"Line.34_43_1_1"       Nan,      0.0     Nan
"Line.35_36_1_1"       Nan,      0.0     Nan
"Line.35_37_1_1"       Nan,      0.0     Nan
"Line.37_39_1_1"       Nan,      0.0     Nan
"Line.37_40_1_1"       Nan,      0.0     Nan
"Line.38_65_1_1"       Nan,      0.0     Nan
"Line.39_40_1_1"       Nan,      0.0     Nan
"Line.40_41_1_1"       Nan,      0.0     Nan
"Line.40_42_1_1"       Nan,      0.0     Nan
"Line.41_42_1_1"       Nan,      0.0     Nan
"Line.42_49_1_1"       Nan,      0.0     Nan
"Line.42_49_1_2"       Nan,      0.0     Nan
"Line.43_44_1_1"       Nan,      0.0     Nan
"Line.44_45_1_1"       Nan,      0.0     Nan
"Line.45_46_1_1"       Nan,      0.0     Nan
"Line.45_49_1_1"       Nan,      0.0     Nan
"Line.46_47_1_1"       Nan,      0.0     Nan
"Line.46_48_1_1"       Nan,      0.0     Nan
"Line.47_49_1_1"       Nan,      0.0     Nan
"Line.47_69_1_1"       Nan,      0.0     Nan
"Line.48_49_1_1"       Nan,      0.0     Nan
"Line.49_50_1_1"       Nan,      0.0     Nan
"Line.49_51_1_1"       Nan,      0.0     Nan
"Line.49_54_1_1"       Nan,      0.0     Nan
"Line.49_54_1_2"       Nan,      0.0     Nan
"Line.49_66_1_1"       Nan,      0.0     Nan
"Line.49_66_1_2"       Nan,      0.0     Nan
"Line.49_69_1_1"       Nan,      0.0     Nan
"Line.50_57_1_1"       Nan,      0.0     Nan
"Line.51_52_1_1"       Nan,      0.0     Nan
"Line.51_58_1_1"       Nan,      0.0     Nan
"Line.52_53_1_1"       Nan,      0.0     Nan
"Line.53_54_1_1"       Nan,      0.0     Nan
"Line.54_55_1_1"       Nan,      0.0     Nan
"Line.54_56_1_1"       Nan,      0.0     Nan
"Line.54_59_1_1"       Nan,      0.0     Nan
"Line.55_56_1_1"       Nan,      0.0     Nan
"Line.55_59_1_1"       Nan,      0.0     Nan
"Line.56_57_1_1"       Nan,      0.0     Nan
"Line.56_58_1_1"       Nan,      0.0     Nan
"Line.56_59_1_1"       Nan,      0.0     Nan
"Line.56_59_1_2"       Nan,      0.0     Nan
"Line.59_60_1_1"       Nan,      0.0     Nan
"Line.59_61_1_1"       Nan,      0.0     Nan
"Line.60_61_1_1"       Nan,      0.0     Nan
"Line.60_62_1_1"       Nan,      0.0     Nan
"Line.61_62_1_1"       Nan,      0.0     Nan
"Line.62_66_1_1"       Nan,      0.0     Nan
"Line.62_67_1_1"       Nan,      0.0     Nan
"Line.63_64_1_1"       Nan,      0.0     Nan
"Line.64_65_1_1"       Nan,      0.0     Nan
"Line.65_68_1_1"       Nan,      0.0     Nan
"Line.66_67_1_1"       Nan,      0.0     Nan
"Line.68_81_1_1"       Nan,      0.0     Nan
"Line.68_116_1_1"       Nan,      0.0     Nan
"Line.69_70_1_1"       Nan,      0.0     Nan
"Line.69_75_1_1"       Nan,      0.0     Nan
"Line.69_77_1_1"       Nan,      0.0     Nan
"Line.70_71_1_1"       Nan,      0.0     Nan
"Line.70_74_1_1"       Nan,      0.0     Nan
"Line.70_75_1_1"       Nan,      0.0     Nan
"Line.71_72_1_1"       Nan,      0.0     Nan
"Line.71_73_1_1"       Nan,      0.0     Nan
"Line.74_75_1_1"       Nan,      0.0     Nan
"Line.75_77_1_1"       Nan,      0.0     Nan
"Line.75_118_1_1"       Nan,      0.0     Nan
"Line.76_77_1_1"       Nan,      0.0     Nan
"Line.76_118_1_1"       Nan,      0.0     Nan
"Line.77_78_1_1"       Nan,      0.0     Nan
"Line.77_80_1_1"       Nan,      0.0     Nan
"Line.77_80_1_2"       Nan,      0.0     Nan
"Line.77_82_1_1"       Nan,      0.0     Nan
"Line.78_79_1_1"       Nan,      0.0     Nan
"Line.79_80_1_1"       Nan,      0.0     Nan
"Line.80_96_1_1"       Nan,      0.0     Nan
"Line.80_97_1_1"       Nan,      0.0     Nan
"Line.80_98_1_1"       Nan,      0.0     Nan
"Line.80_99_1_1"       Nan,      0.0     Nan
"Line.82_83_1_1"       Nan,      0.0     Nan
"Line.82_96_1_1"       Nan,      0.0     Nan
"Line.83_84_1_1"       Nan,      0.0     Nan
"Line.83_85_1_1"       Nan,      0.0     Nan
"Line.84_85_1_1"       Nan,      0.0     Nan
"Line.85_86_1_1"       Nan,      0.0     Nan
"Line.85_88_1_1"       Nan,      0.0     Nan
"Line.85_89_1_1"       Nan,      0.0     Nan
"Line.86_87_1_1"       Nan,      0.0     Nan
"Line.88_89_1_1"       Nan,      0.0     Nan
"Line.89_90_1_1"       Nan,      0.0     Nan
"Line.89_90_1_2"       Nan,      0.0     Nan
"Line.89_92_1_1"       Nan,      0.0     Nan
"Line.89_92_1_2"       Nan,      0.0     Nan
"Line.90_91_1_1"       Nan,      0.0     Nan
"Line.91_92_1_1"       Nan,      0.0     Nan
"Line.92_93_1_1"       Nan,      0.0     Nan
"Line.92_94_1_1"       Nan,      0.0     Nan
"Line.92_100_1_1"       Nan,      0.0     Nan
"Line.92_102_1_1"       Nan,      0.0     Nan
"Line.93_94_1_1"       Nan,      0.0     Nan
"Line.94_95_1_1"       Nan,      0.0     Nan
"Line.94_96_1_1"       Nan,      0.0     Nan
"Line.94_100_1_1"       Nan,      0.0     Nan
"Line.95_96_1_1"       Nan,      0.0     Nan
"Line.96_97_1_1"       Nan,      0.0     Nan
"Line.98_100_1_1"       Nan,      0.0     Nan
"Line.99_100_1_1"       Nan,      0.0     Nan
"Line.100_101_1_1"       Nan,      0.0     Nan
"Line.100_103_1_1"       Nan,      0.0     Nan
"Line.100_104_1_1"       Nan,      0.0     Nan
"Line.100_106_1_1"       Nan,      0.0     Nan
"Line.101_102_1_1"       Nan,      0.0     Nan
"Line.103_104_1_1"       Nan,      0.0     Nan
"Line.103_105_1_1"       Nan,      0.0     Nan
"Line.103_110_1_1"       Nan,      0.0     Nan
"Line.104_105_1_1"       Nan,      0.0     Nan
"Line.105_106_1_1"       Nan,      0.0     Nan
"Line.105_107_1_1"       Nan,      0.0     Nan
"Line.105_108_1_1"       Nan,      0.0     Nan
"Line.106_107_1_1"       Nan,      0.0     Nan
"Line.108_109_1_1"       Nan,      0.0     Nan
"Line.109_110_1_1"       Nan,      0.0     Nan
"Line.110_111_1_1"       Nan,      0.0     Nan
"Line.110_112_1_1"       Nan,      0.0     Nan
"Line.114_115_1_1"       Nan,      0.0     Nan
"Transformer.8_5_0_1_1"       Nan,      0.0     Nan
"Transformer.30_17_0_1_1"       Nan,      0.0     Nan
"Transformer.26_25_0_1_1"       Nan,      0.0     Nan
"Transformer.38_37_0_1_1"       Nan,      0.0     Nan
"Transformer.63_59_0_1_1"       Nan,      0.0     Nan
"Transformer.64_61_0_1_1"       Nan,      0.0     Nan
"Transformer.65_66_0_1_1"       Nan,      0.0     Nan
"Transformer.68_69_0_1_1"       Nan,      0.0     Nan
"Transformer.81_80_0_1_1"       Nan,      0.0     Nan
"Reactor.reac_at5_1"       Nan,      0.0     Nan
"Capacitor.capa_at34_1"       Nan,      0.0     Nan
"Reactor.reac_at37_1"       Nan,      0.0     Nan
"Capacitor.capa_at44_1"       Nan,      0.0     Nan
"Capacitor.capa_at45_1"       Nan,      0.0     Nan
"Capacitor.capa_at46_1"       Nan,      0.0     Nan
"Capacitor.capa_at48_1"       Nan,      0.0     Nan
"Capacitor.capa_at74_1"       Nan,      0.0     Nan
"Capacitor.capa_at79_1"       Nan,      0.0     Nan
"Capacitor.capa_at82_1"       Nan,      0.0     Nan
"Capacitor.capa_at83_1"       Nan,      0.0     Nan
"Capacitor.capa_at105_1"       Nan,      0.0     Nan
"Capacitor.capa_at107_1"       Nan,      0.0     Nan
"Capacitor.capa_at110_1"       Nan,      0.0     Nan

LINE LOSSES=                         Nan kW
TRANSFORMER LOSSES=                  Nan kW

TOTAL LOSSES=                        Nan kW

TOTAL LOAD POWER =                   Nan kW
Percent Losses for Circuit =       Nan %
