ieee118bus_VLN_Node.txt

LINE-GROUND and LINE-LINE VOLTAGES BY BUS & NODE

Bus  Node    VLN (kV)   Angle      pu     Base kV    Node-Node   VLL (kV)  Angle      pu

89_CLINCHRV  1       54.101 /_   -9.5   0.67902   138.000        1-2     93.705 /_   20.5   0.67902
   -         2       54.101 /_ -129.5   0.67902   138.000        2-3     93.705 /_  -99.5   0.67902
   -         3       54.101 /_  110.5   0.67902   138.000        3-1     93.705 /_  140.5   0.67902
1_RIVERSDE . 1       6.7248 /_ -123.6  0.084404   138.000        1-2     11.648 /_  -93.6  0.084404
   -         2       6.7248 /_  116.4  0.084404   138.000        2-3     11.648 /_  146.4  0.084404
   -         3       6.7248 /_   -3.6  0.084404   138.000        3-1     11.648 /_   26.4  0.084404
4_NWCARLSL . 1       7.0942 /_ -120.1  0.089039   138.000        1-2     12.287 /_  -90.1  0.089039
   -         2       7.0942 /_  119.9  0.089039   138.000        2-3     12.287 /_  149.9  0.089039
   -         3       7.0942 /_   -0.1  0.089039   138.000        3-1     12.287 /_   29.9  0.089039
6_KANKAKEE . 1       6.9327 /_ -121.6  0.087012   138.000        1-2     12.008 /_  -91.6  0.087012
   -         2       6.9327 /_  118.4  0.087012   138.000        2-3     12.008 /_  148.4  0.087012
   -         3       6.9327 /_   -1.6  0.087012   138.000        3-1     12.008 /_   28.4  0.087012
8_OLIVE .... 1       7.3474 /_ -116.2  0.092218   138.000        1-2     12.726 /_  -86.2  0.092218
   -         2       7.3474 /_  123.8  0.092218   138.000        2-3     12.726 /_  153.8  0.092218
   -         3       7.3474 /_    3.8  0.092218   138.000        3-1     12.726 /_   33.8  0.092218
10_BREED ... 1       7.8455 /_ -116.4  0.098469   138.000        1-2     13.589 /_  -86.4  0.098469
   -         2       7.8455 /_  123.6  0.098469   138.000        2-3     13.589 /_  153.6  0.098469
   -         3       7.8455 /_    3.6  0.098469   138.000        3-1     13.589 /_   33.6  0.098469
12_TWINBRCH  1       6.8792 /_ -121.7  0.086341   138.000        1-2     11.915 /_  -91.7  0.086341
   -         2       6.8792 /_  118.3  0.086341   138.000        2-3     11.915 /_  148.3  0.086341
   -         3       6.8792 /_   -1.7  0.086341   138.000        3-1     11.915 /_   28.3  0.086341
15_FTWAYNE . 1       7.1132 /_ -114.1  0.089278   138.000        1-2      12.32 /_  -84.1  0.089278
   -         2       7.1132 /_  125.9  0.089278   138.000        2-3      12.32 /_  155.9  0.089278
   -         3       7.1132 /_    5.9  0.089278   138.000        3-1      12.32 /_   35.9  0.089278
18_MCKINLEY  1       7.1168 /_ -113.6  0.089323   138.000        1-2     12.327 /_  -83.6  0.089323
   -         2       7.1168 /_  126.4  0.089323   138.000        2-3     12.327 /_  156.4  0.089323
   -         3       7.1168 /_    6.4  0.089323   138.000        3-1     12.327 /_   36.4  0.089323
19_LINCOLN . 1       7.1213 /_ -113.0   0.08938   138.000        1-2     12.334 /_  -83.0   0.08938
   -         2       7.1213 /_  127.0   0.08938   138.000        2-3     12.334 /_  157.0   0.08938
   -         3       7.1213 /_    7.0   0.08938   138.000        3-1     12.334 /_   37.0   0.08938
24_TRENTON . 1       8.3494 /_  -91.8   0.10479   138.000        1-2     14.462 /_  -61.8   0.10479
   -         2       8.3494 /_  148.2   0.10479   138.000        2-3     14.462 /_  178.2   0.10479
   -         3       8.3494 /_   28.2   0.10479   138.000        3-1     14.462 /_   58.2   0.10479
25_TANNRSCK  1       7.6315 /_ -105.3  0.095784   138.000        1-2     13.218 /_  -75.3  0.095784
   -         2       7.6315 /_  134.7  0.095784   138.000        2-3     13.218 /_  164.7  0.095784
   -         3       7.6315 /_   14.7  0.095784   138.000        3-1     13.218 /_   44.7  0.095784
26_TANNRSCK  1       7.3982 /_ -106.2  0.092855   138.000        1-2     12.814 /_  -76.2  0.092855
   -         2       7.3982 /_  133.8  0.092855   138.000        2-3     12.814 /_  163.8  0.092855
   -         3       7.3982 /_   13.8  0.092855   138.000        3-1     12.814 /_   43.8  0.092855
27_MADISON . 1       7.1537 /_ -111.6  0.089786   138.000        1-2      12.39 /_  -81.6  0.089786
   -         2       7.1537 /_  128.4  0.089786   138.000        2-3      12.39 /_  158.4  0.089786
   -         3       7.1537 /_    8.4  0.089786   138.000        3-1      12.39 /_   38.4  0.089786
31_DEERCRK . 1       7.0353 /_ -113.0  0.088301   138.000        1-2     12.185 /_  -83.0  0.088301
   -         2       7.0353 /_  127.0  0.088301   138.000        2-3     12.185 /_  157.0  0.088301
   -         3       7.0353 /_    7.0  0.088301   138.000        3-1     12.185 /_   37.0  0.088301
32_DELAWARE  1       7.1672 /_ -110.5  0.089956   138.000        1-2     12.414 /_  -80.5  0.089956
   -         2       7.1672 /_  129.5  0.089956   138.000        2-3     12.414 /_  159.5  0.089956
   -         3       7.1672 /_    9.5  0.089956   138.000        3-1     12.414 /_   39.5  0.089956
34_ROCKHILL  1       7.8303 /_ -103.0  0.098279   138.000        1-2     13.562 /_  -73.0  0.098279
   -         2       7.8303 /_  137.0  0.098279   138.000        2-3     13.562 /_  167.0  0.098279
   -         3       7.8303 /_   17.0  0.098279   138.000        3-1     13.562 /_   47.0  0.098279
36_STERLING  1        7.787 /_ -103.4  0.097736   138.000        1-2     13.488 /_  -73.4  0.097736
   -         2        7.787 /_  136.6  0.097736   138.000        2-3     13.488 /_  166.6  0.097736
   -         3        7.787 /_   16.6  0.097736   138.000        3-1     13.488 /_   46.6  0.097736
40_WESTEND . 1       7.7863 /_ -103.0  0.097726   138.000        1-2     13.486 /_  -73.0  0.097726
   -         2       7.7863 /_  137.0  0.097726   138.000        2-3     13.486 /_  167.0  0.097726
   -         3       7.7863 /_   17.0  0.097726   138.000        3-1     13.486 /_   47.0  0.097726
42_HOWARD .. 1       8.1686 /_  -98.4   0.10252   138.000        1-2     14.148 /_  -68.4   0.10252
   -         2       8.1686 /_  141.6   0.10252   138.000        2-3     14.148 /_  171.6   0.10252
   -         3       8.1686 /_   21.6   0.10252   138.000        3-1     14.148 /_   51.6   0.10252
46_WLANCST . 1       9.4368 /_  -85.5   0.11844   138.000        1-2     16.345 /_  -55.5   0.11844
   -         2       9.4368 /_  154.5   0.11844   138.000        2-3     16.345 /_ -175.5   0.11844
   -         3       9.4368 /_   34.5   0.11844   138.000        3-1     16.345 /_   64.5   0.11844
49_PHILO ... 1       9.6135 /_  -83.6   0.12066   138.000        1-2     16.651 /_  -53.6   0.12066
   -         2       9.6135 /_  156.4   0.12066   138.000        2-3     16.651 /_ -173.6   0.12066
   -         3       9.6135 /_   36.4   0.12066   138.000        3-1     16.651 /_   66.4   0.12066
54_TORREY .. 1       9.0253 /_  -90.5   0.11328   138.000        1-2     15.632 /_  -60.5   0.11328
   -         2       9.0253 /_  149.5   0.11328   138.000        2-3     15.632 /_  179.5   0.11328
   -         3       9.0253 /_   29.5   0.11328   138.000        3-1     15.632 /_   59.5   0.11328
55_WAGENHLS  1       9.0111 /_  -90.6    0.1131   138.000        1-2     15.608 /_  -60.6    0.1131
   -         2       9.0111 /_  149.4    0.1131   138.000        2-3     15.608 /_  179.4    0.1131
   -         3       9.0111 /_   29.4    0.1131   138.000        3-1     15.608 /_   59.4    0.1131
56_SUNNYSDE  1       9.0266 /_  -90.5   0.11329   138.000        1-2     15.635 /_  -60.5   0.11329
   -         2       9.0266 /_  149.5   0.11329   138.000        2-3     15.635 /_  179.5   0.11329
   -         3       9.0266 /_   29.5   0.11329   138.000        3-1     15.635 /_   59.5   0.11329
59_TIDD .... 1       9.4461 /_  -86.6   0.11856   138.000        1-2     16.361 /_  -56.6   0.11856
   -         2       9.4461 /_  153.4   0.11856   138.000        2-3     16.361 /_ -176.6   0.11856
   -         3       9.4461 /_   33.4   0.11856   138.000        3-1     16.361 /_   63.4   0.11856
61_WKAMMER . 1       9.9169 /_  -81.2   0.12447   138.000        1-2     17.177 /_  -51.2   0.12447
   -         2       9.9169 /_  158.8   0.12447   138.000        2-3     17.177 /_ -171.2   0.12447
   -         3       9.9169 /_   38.8   0.12447   138.000        3-1     17.177 /_   68.8   0.12447
62_NATRIUM . 1       9.9289 /_  -81.8   0.12462   138.000        1-2     17.197 /_  -51.8   0.12462
   -         2       9.9289 /_  158.2   0.12462   138.000        2-3     17.197 /_ -171.8   0.12462
   -         3       9.9289 /_   38.2   0.12462   138.000        3-1     17.197 /_   68.2   0.12462
65_MUSKNGUM  1        10.51 /_  -70.6   0.13192   138.000        1-2     18.204 /_  -40.6   0.13192
   -         2        10.51 /_  169.4   0.13192   138.000        2-3     18.204 /_ -160.6   0.13192
   -         3        10.51 /_   49.4   0.13192   138.000        3-1     18.204 /_   79.4   0.13192
66_MUSKNGUM  1       10.446 /_  -77.6   0.13111   138.000        1-2     18.093 /_  -47.6   0.13111
   -         2       10.446 /_  162.4   0.13111   138.000        2-3     18.093 /_ -167.6   0.13111
   -         3       10.446 /_   42.4   0.13111   138.000        3-1     18.093 /_   72.4   0.13111
69_SPORN ... 1       12.867 /_  -59.2    0.1615   138.000        1-2     22.287 /_  -29.2    0.1615
   -         2       12.867 /_ -179.2    0.1615   138.000        2-3     22.287 /_ -149.2    0.1615
   -         3       12.867 /_   60.8    0.1615   138.000        3-1     22.287 /_   90.8    0.1615
70_PORTSMTH  1       11.648 /_  -64.1   0.14619   138.000        1-2     20.174 /_  -34.1   0.14619
   -         2       11.648 /_  175.9   0.14619   138.000        2-3     20.174 /_ -154.1   0.14619
   -         3       11.648 /_   55.9   0.14619   138.000        3-1     20.174 /_   85.9   0.14619
72_HILLSBRO  1       9.6519 /_  -77.1   0.12114   138.000        1-2     16.717 /_  -47.1   0.12114
   -         2       9.6519 /_  162.9   0.12114   138.000        2-3     16.717 /_ -167.1   0.12114
   -         3       9.6519 /_   42.9   0.12114   138.000        3-1     16.717 /_   72.9   0.12114
73_SARGENTS  1       11.286 /_  -66.2   0.14165   138.000        1-2     19.548 /_  -36.2   0.14165
   -         2       11.286 /_  173.8   0.14165   138.000        2-3     19.548 /_ -156.2   0.14165
   -         3       11.286 /_   53.8   0.14165   138.000        3-1     19.548 /_   83.8   0.14165
74_BELLEFNT  1       12.643 /_  -60.5   0.15868   138.000        1-2     21.898 /_  -30.5   0.15868
   -         2       12.643 /_  179.5   0.15868   138.000        2-3     21.898 /_ -150.5   0.15868
   -         3       12.643 /_   59.5   0.15868   138.000        3-1     21.898 /_   89.5   0.15868
76_DARRAH .. 1       14.235 /_  -53.5   0.17867   138.000        1-2     24.656 /_  -23.5   0.17867
   -         2       14.235 /_ -173.5   0.17867   138.000        2-3     24.656 /_ -143.5   0.17867
   -         3       14.235 /_   66.5   0.17867   138.000        3-1     24.656 /_   96.5   0.17867
77_TURNER .. 1       17.507 /_  -43.8   0.21973   138.000        1-2     30.322 /_  -13.8   0.21973
   -         2       17.507 /_ -163.8   0.21973   138.000        2-3     30.322 /_ -133.8   0.21973
   -         3       17.507 /_   76.2   0.21973   138.000        3-1     30.322 /_  106.2   0.21973
80_CABINCRK  1       18.113 /_  -42.7   0.22734   138.000        1-2     31.373 /_  -12.7   0.22734
   -         2       18.113 /_ -162.7   0.22734   138.000        2-3     31.373 /_ -132.7   0.22734
   -         3       18.113 /_   77.3   0.22734   138.000        3-1     31.373 /_  107.3   0.22734
85_BEAVERCK  1       41.961 /_  -18.2   0.52666   138.000        1-2     72.679 /_   11.8   0.52666
   -         2       41.961 /_ -138.2   0.52666   138.000        2-3     72.679 /_ -108.2   0.52666
   -         3       41.961 /_  101.8   0.52666   138.000        3-1     72.679 /_  131.8   0.52666
87_PINEVLLE  1       41.548 /_  -19.6   0.52147   138.000        1-2     71.963 /_   10.4   0.52147
   -         2       41.548 /_ -139.6   0.52147   138.000        2-3     71.963 /_ -109.6   0.52147
   -         3       41.548 /_  100.4   0.52147   138.000        3-1     71.963 /_  130.4   0.52147
90_HOLSTON . 1       49.633 /_  -15.3   0.62295   138.000        1-2     85.967 /_   14.7   0.62295
   -         2       49.633 /_ -135.3   0.62295   138.000        2-3     85.967 /_ -105.3   0.62295
   -         3       49.633 /_  104.7   0.62295   138.000        3-1     85.967 /_  134.7   0.62295
91_HOLSTONT  1       47.332 /_  -15.9   0.59406   138.000        1-2     81.981 /_   14.1   0.59406
   -         2       47.332 /_ -135.9   0.59406   138.000        2-3     81.981 /_ -105.9   0.59406
   -         3       47.332 /_  104.1   0.59406   138.000        3-1     81.981 /_  134.1   0.59406
92_SALTVLLE  1        43.88 /_  -16.0   0.55075   138.000        1-2     76.003 /_   14.0   0.55075
   -         2        43.88 /_ -136.0   0.55075   138.000        2-3     76.003 /_ -106.0   0.55075
   -         3        43.88 /_  104.0   0.55075   138.000        3-1     76.003 /_  134.0   0.55075
99_HINTON .. 1       25.281 /_  -34.3    0.3173   138.000        1-2     43.788 /_   -4.3    0.3173
   -         2       25.281 /_ -154.3    0.3173   138.000        2-3     43.788 /_ -124.3    0.3173
   -         3       25.281 /_   85.7    0.3173   138.000        3-1     43.788 /_  115.7    0.3173
100_GLENLYN  1       28.378 /_  -30.4   0.35617   138.000        1-2     49.152 /_   -0.4   0.35617
   -         2       28.378 /_ -150.4   0.35617   138.000        2-3     49.152 /_ -120.4   0.35617
   -         3       28.378 /_   89.6   0.35617   138.000        3-1     49.152 /_  119.6   0.35617
103_CLAYTOR  1       26.926 /_  -34.4   0.33795   138.000        1-2     46.638 /_   -4.4   0.33795
   -         2       26.926 /_ -154.4   0.33795   138.000        2-3     46.638 /_ -124.4   0.33795
   -         3       26.926 /_   85.6   0.33795   138.000        3-1     46.638 /_  115.6   0.33795
104_HANCOCK  1       26.294 /_  -36.8   0.33002   138.000        1-2     45.543 /_   -6.8   0.33002
   -         2       26.294 /_ -156.8   0.33002   138.000        2-3     45.543 /_ -126.8   0.33002
   -         3       26.294 /_   83.2   0.33002   138.000        3-1     45.543 /_  113.2   0.33002
105_ROANOKE  1       26.087 /_  -37.9   0.32742   138.000        1-2     45.184 /_   -7.9   0.32742
   -         2       26.087 /_ -157.9   0.32742   138.000        2-3     45.184 /_ -127.9   0.32742
   -         3       26.087 /_   82.1   0.32742   138.000        3-1     45.184 /_  112.1   0.32742
107_REUSENS  1        25.69 /_  -40.5   0.32243   138.000        1-2     44.496 /_  -10.5   0.32243
   -         2        25.69 /_ -160.5   0.32243   138.000        2-3     44.496 /_ -130.5   0.32243
   -         3        25.69 /_   79.5   0.32243   138.000        3-1     44.496 /_  109.5   0.32243
110_FIELDALE 1       25.055 /_  -41.1   0.31447   138.000        1-2     43.397 /_  -11.1   0.31447
   -         2       25.055 /_ -161.1   0.31447   138.000        2-3     43.397 /_ -131.1   0.31447
   -         3       25.055 /_   78.9   0.31447   138.000        3-1     43.397 /_  108.9   0.31447
111_DANRIVER 1       25.077 /_  -41.1   0.31474   138.000        1-2     43.434 /_  -11.1   0.31474
   -         2       25.077 /_ -161.1   0.31474   138.000        2-3     43.434 /_ -131.1   0.31474
   -         3       25.077 /_   78.9   0.31474   138.000        3-1     43.434 /_  108.9   0.31474
112_DANVILLE 1       24.461 /_  -43.4   0.30701   138.000        1-2     42.368 /_  -13.4   0.30701
   -         2       24.461 /_ -163.4   0.30701   138.000        2-3     42.368 /_ -133.4   0.30701
   -         3       24.461 /_   76.6   0.30701   138.000        3-1     42.368 /_  106.6   0.30701
113_DEERCRK  1        7.269 /_ -112.5  0.091234   138.000        1-2      12.59 /_  -82.5  0.091234
   -         2        7.269 /_  127.5  0.091234   138.000        2-3      12.59 /_  157.5  0.091234
   -         3        7.269 /_    7.5  0.091234   138.000        3-1      12.59 /_   37.5  0.091234
116_KYGERCRK 1        11.93 /_  -62.4   0.14974   138.000        1-2     20.664 /_  -32.4   0.14974
   -         2        11.93 /_  177.6   0.14974   138.000        2-3     20.664 /_ -152.4   0.14974
   -         3        11.93 /_   57.6   0.14974   138.000        3-1     20.664 /_   87.6   0.14974
2_POKAGON .. 1       6.7847 /_ -122.8  0.085155   138.000        1-2     11.751 /_  -92.8  0.085155
   -         2       6.7847 /_  117.2  0.085155   138.000        2-3     11.751 /_  147.2  0.085155
   -         3       6.7847 /_   -2.8  0.085155   138.000        3-1     11.751 /_   27.2  0.085155
3_HICKRYCK . 1       6.8171 /_ -122.9  0.085562   138.000        1-2     11.808 /_  -92.9  0.085562
   -         2       6.8171 /_  117.1  0.085562   138.000        2-3     11.808 /_  147.1  0.085562
   -         3       6.8171 /_   -2.9  0.085562   138.000        3-1     11.808 /_   27.1  0.085562
5_OLIVE .... 1       7.1244 /_ -119.8  0.089419   138.000        1-2      12.34 /_  -89.8  0.089419
   -         2       7.1244 /_  120.2  0.089419   138.000        2-3      12.34 /_  150.2  0.089419
   -         3       7.1244 /_    0.2  0.089419   138.000        3-1      12.34 /_   30.2  0.089419
11_SOUTHBND  1       6.9169 /_ -121.4  0.086815   138.000        1-2      11.98 /_  -91.4  0.086815
   -         2       6.9169 /_  118.6  0.086815   138.000        2-3      11.98 /_  148.6  0.086815
   -         3       6.9169 /_   -1.4  0.086815   138.000        3-1      11.98 /_   28.6  0.086815
7_JACKSNRD . 1       6.9073 /_ -121.8  0.086694   138.000        1-2     11.964 /_  -91.8  0.086694
   -         2       6.9073 /_  118.2  0.086694   138.000        2-3     11.964 /_  148.2  0.086694
   -         3       6.9073 /_   -1.8  0.086694   138.000        3-1     11.964 /_   28.2  0.086694
9_BEQUINE .. 1         7.71 /_ -116.4  0.096769   138.000        1-2     13.354 /_  -86.4  0.096769
   -         2         7.71 /_  123.6  0.096769   138.000        2-3     13.354 /_  153.6  0.096769
   -         3         7.71 /_    3.6  0.096769   138.000        3-1     13.354 /_   33.6  0.096769
30_SORENSON  1       7.3019 /_ -108.7  0.091647   138.000        1-2     12.647 /_  -78.7  0.091647
   -         2       7.3019 /_  131.3  0.091647   138.000        2-3     12.647 /_  161.3  0.091647
   -         3       7.3019 /_   11.3  0.091647   138.000        3-1     12.647 /_   41.3  0.091647
13_CONCORD . 1       6.8625 /_ -120.6  0.086132   138.000        1-2     11.886 /_  -90.6  0.086132
   -         2       6.8625 /_  119.4  0.086132   138.000        2-3     11.886 /_  149.4  0.086132
   -         3       6.8625 /_   -0.6  0.086132   138.000        3-1     11.886 /_   29.4  0.086132
14_GOSHENJT  1       6.9205 /_ -120.0   0.08686   138.000        1-2     11.987 /_  -90.0   0.08686
   -         2       6.9205 /_  120.0   0.08686   138.000        2-3     11.987 /_  150.0   0.08686
   -         3       6.9205 /_    0.0   0.08686   138.000        3-1     11.987 /_   30.0   0.08686
16_NE ...... 1       6.9346 /_ -119.5  0.087037   138.000        1-2     12.011 /_  -89.5  0.087037
   -         2       6.9346 /_  120.5  0.087037   138.000        2-3     12.011 /_  150.5  0.087037
   -         3       6.9346 /_    0.5  0.087037   138.000        3-1     12.011 /_   30.5  0.087037
117_COREY .. 1       6.7707 /_ -123.1   0.08498   138.000        1-2     11.727 /_  -93.1   0.08498
   -         2       6.7707 /_  116.9   0.08498   138.000        2-3     11.727 /_  146.9   0.08498
   -         3       6.7707 /_   -3.1   0.08498   138.000        3-1     11.727 /_   26.9   0.08498
17_SORENSON  1       7.2833 /_ -112.7  0.091414   138.000        1-2     12.615 /_  -82.7  0.091414
   -         2       7.2833 /_  127.3  0.091414   138.000        2-3     12.615 /_  157.3  0.091414
   -         3       7.2833 /_    7.3  0.091414   138.000        3-1     12.615 /_   37.3  0.091414
33_HAVILAND  1       7.3712 /_ -109.2  0.092517   138.000        1-2     12.767 /_  -79.2  0.092517
   -         2       7.3712 /_  130.8  0.092517   138.000        2-3     12.767 /_  160.8  0.092517
...
